/*--------------------------------*- C++ -*----------------------------------*\
  =========                 |
  \\      /  F ield         | OpenFOAM: The Open Source CFD Toolbox
   \\    /   O peration     | Website:  https://openfoam.org
    \\  /    A nd           | Version:  8
     \\/     M anipulation  |
\*---------------------------------------------------------------------------*/
FoamFile
{
    version     2.0;
    format      binary;
    class       polyBoundaryMesh;
    location    "constant/polyMesh";
    object      boundary;
}
// * * * * * * * * * * * * * * * * * * * * * * * * * * * * * * * * * * * * * //

9
(
    movingWall
    {
        type            wall;
        inGroups        List<word> 1(wall);
        nFaces          20;
        startFace       1930;
    }
    movingLowerWall
    {
        type            wall;
        inGroups        List<word> 1(wall);
        nFaces          10;
        startFace       1950;
    }
    topField
    {
        type            patch;
        nFaces          20;
        startFace       1960;
    }
    bottomWallLeft
    {
        type            patch;
        nFaces          20;
        startFace       1980;
    }
    bottomWallRight
    {
        type            patch;
        nFaces          10;
        startFace       2000;
    }
    rightWall
    {
        type            wall;
        inGroups        List<word> 1(wall);
        nFaces          20;
        startFace       2010;
    }
    leftWall
    {
        type            wall;
        inGroups        List<word> 1(wall);
        nFaces          40;
        startFace       2030;
    }
    front
    {
        type            empty;
        inGroups        List<word> 1(empty);
        nFaces          1000;
        startFace       2070;
    }
    back
    {
        type            empty;
        inGroups        List<word> 1(empty);
        nFaces          1000;
        startFace       3070;
    }
)

// ************************************************************************* //
