/*--------------------------------*- C++ -*----------------------------------*\
  =========                 |
  \\      /  F ield         | OpenFOAM: The Open Source CFD Toolbox
   \\    /   O peration     | Website:  https://openfoam.org
    \\  /    A nd           | Version:  8
     \\/     M anipulation  |
\*---------------------------------------------------------------------------*/
FoamFile
{
    version     2.0;
    format      binary;
    class       polyBoundaryMesh;
    location    "constant/polyMesh";
    object      boundary;
}
// * * * * * * * * * * * * * * * * * * * * * * * * * * * * * * * * * * * * * //

8
(
    movingWall
    {
        type            wall;
        inGroups        List<word> 1(wall);
        nFaces          20;
        startFace       1530;
    }
    movingTopWall
    {
        type            wall;
        inGroups        List<word> 1(wall);
        nFaces          20;
        startFace       1550;
    }
    farFieldMoving
    {
        type            patch;
        nFaces          20;
        startFace       1570;
    }
    rightWall
    {
        type            wall;
        inGroups        List<word> 1(wall);
        nFaces          10;
        startFace       1590;
    }
    axis
    {
        type            patch;
        nFaces          40;
        startFace       1600;
    }
    leftWall
    {
        type            patch;
        nFaces          30;
        startFace       1640;
    }
    back
    {
        type            empty;
        inGroups        List<word> 1(empty);
        nFaces          800;
        startFace       1670;
    }
    front
    {
        type            empty;
        inGroups        List<word> 1(empty);
        nFaces          800;
        startFace       2470;
    }
)

// ************************************************************************* //
