/*--------------------------------*- C++ -*----------------------------------*\
  =========                 |
  \\      /  F ield         | OpenFOAM: The Open Source CFD Toolbox
   \\    /   O peration     | Website:  https://openfoam.org
    \\  /    A nd           | Version:  8
     \\/     M anipulation  |
\*---------------------------------------------------------------------------*/
FoamFile
{
    version     2.0;
    format      binary;
    class       polyBoundaryMesh;
    location    "constant/polyMesh";
    object      boundary;
}
// * * * * * * * * * * * * * * * * * * * * * * * * * * * * * * * * * * * * * //

9
(
    movingWall
    {
        type            wall;
        inGroups        List<word> 1(wall);
        nFaces          10;
        startFace       1140;
    }
    movingTopWall
    {
        type            wall;
        inGroups        List<word> 1(wall);
        nFaces          20;
        startFace       1150;
    }
    farFieldMoving
    {
        type            patch;
        nFaces          20;
        startFace       1170;
    }
    rightWall
    {
        type            wall;
        inGroups        List<word> 1(wall);
        nFaces          10;
        startFace       1190;
    }
    axis
    {
        type            patch;
        nFaces          20;
        startFace       1200;
    }
    leftWall
    {
        type            patch;
        nFaces          20;
        startFace       1220;
    }
    farField
    {
        type            patch;
        nFaces          20;
        startFace       1240;
    }
    back
    {
        type            empty;
        inGroups        List<word> 1(empty);
        nFaces          600;
        startFace       1260;
    }
    front
    {
        type            empty;
        inGroups        List<word> 1(empty);
        nFaces          600;
        startFace       1860;
    }
)

// ************************************************************************* //
