/*--------------------------------*- C++ -*----------------------------------*\
  =========                 |
  \\      /  F ield         | OpenFOAM: The Open Source CFD Toolbox
   \\    /   O peration     | Website:  https://openfoam.org
    \\  /    A nd           | Version:  8
     \\/     M anipulation  |
\*---------------------------------------------------------------------------*/
FoamFile
{
    version     2.0;
    format      binary;
    class       polyBoundaryMesh;
    location    "constant/polyMesh";
    object      boundary;
}
// * * * * * * * * * * * * * * * * * * * * * * * * * * * * * * * * * * * * * //

8
(
    movingWall
    {
        type            wall;
        inGroups        List<word> 1(wall);
        nFaces          50;
        startFace       1565;
    }
    farFieldMoving
    {
        type            patch;
        nFaces          25;
        startFace       1615;
    }
    rightWall
    {
        type            wall;
        inGroups        List<word> 1(wall);
        nFaces          25;
        startFace       1640;
    }
    axis
    {
        type            patch;
        nFaces          25;
        startFace       1665;
    }
    leftWall
    {
        type            patch;
        nFaces          20;
        startFace       1690;
    }
    farField
    {
        type            patch;
        nFaces          25;
        startFace       1710;
    }
    back
    {
        type            empty;
        inGroups        List<word> 1(empty);
        nFaces          825;
        startFace       1735;
    }
    front
    {
        type            empty;
        inGroups        List<word> 1(empty);
        nFaces          825;
        startFace       2560;
    }
)

// ************************************************************************* //
