/*--------------------------------*- C++ -*----------------------------------*\
| =========                 |                                                 |
| \\      /  F ield         | OpenFOAM: The Open Source CFD Toolbox           |
|  \\    /   O peration     | Version:  v1906                                 |
|   \\  /    A nd           | Web:      www.OpenFOAM.com                      |
|    \\/     M anipulation  |                                                 |
\*---------------------------------------------------------------------------*/
FoamFile
{
    version     2.0;
    format      binary;
    class       polyBoundaryMesh;
    arch        "LSB;label=32;scalar=64";
    location    "constant/polyMesh";
    object      boundary;
}
// * * * * * * * * * * * * * * * * * * * * * * * * * * * * * * * * * * * * * //

8
(
    movingWall
    {
        type            wall;
        inGroups        1(wall);
        nFaces          20;
        startFace       7860;
    }
    movingTopWall
    {
        type            wall;
        inGroups        1(wall);
        nFaces          40;
        startFace       7880;
    }
    atmosphere
    {
        type            patch;
        nFaces          40;
        startFace       7920;
    }
    outlet
    {
        type            wall;
        inGroups        1(wall);
        nFaces          40;
        startFace       7960;
    }
    axis
    {
        type            patch;
        nFaces          80;
        startFace       8000;
    }
    inlet
    {
        type            patch;
        nFaces          60;
        startFace       8080;
    }
    back
    {
        type            empty;
        inGroups        1(empty);
        nFaces          4000;
        startFace       8140;
    }
    front
    {
        type            empty;
        inGroups        1(empty);
        nFaces          4000;
        startFace       12140;
    }
)

// ************************************************************************* //
