/*--------------------------------*- C++ -*----------------------------------*\
  =========                 |
  \\      /  F ield         | OpenFOAM: The Open Source CFD Toolbox
   \\    /   O peration     | Website:  https://openfoam.org
    \\  /    A nd           | Version:  8
     \\/     M anipulation  |
\*---------------------------------------------------------------------------*/
FoamFile
{
    version     2.0;
    format      binary;
    class       polyBoundaryMesh;
    location    "constant/polyMesh";
    object      boundary;
}
// * * * * * * * * * * * * * * * * * * * * * * * * * * * * * * * * * * * * * //

8
(
    movingWall
    {
        type            wall;
        inGroups        List<word> 1(wall);
        nFaces          85;
        startFace       5045;
    }
    farFieldMoving
    {
        type            patch;
        nFaces          50;
        startFace       5130;
    }
    rightWall
    {
        type            wall;
        inGroups        List<word> 1(wall);
        nFaces          35;
        startFace       5180;
    }
    axis
    {
        type            patch;
        nFaces          55;
        startFace       5215;
    }
    leftWall
    {
        type            patch;
        nFaces          30;
        startFace       5270;
    }
    farField
    {
        type            patch;
        nFaces          55;
        startFace       5300;
    }
    back
    {
        type            empty;
        inGroups        List<word> 1(empty);
        nFaces          2600;
        startFace       5355;
    }
    front
    {
        type            empty;
        inGroups        List<word> 1(empty);
        nFaces          2600;
        startFace       7955;
    }
)

// ************************************************************************* //
