/*--------------------------------*- C++ -*----------------------------------*\
  =========                 |
  \\      /  F ield         | OpenFOAM: The Open Source CFD Toolbox
   \\    /   O peration     | Website:  https://openfoam.org
    \\  /    A nd           | Version:  8
     \\/     M anipulation  |
\*---------------------------------------------------------------------------*/
FoamFile
{
    version     2.0;
    format      ascii;
    class       volScalarField;
    object      alpha.water;
}
// * * * * * * * * * * * * * * * * * * * * * * * * * * * * * * * * * * * * * //

dimensions      [0 0 0 0 0 0 0];

internalField   uniform 0;

boundaryField
{
    movingWall
    {
        type            zeroGradient;
    }

    farFieldMoving
    {
        type            inletOutlet;
        inletValue      uniform 0;
        value           uniform 0;
    }

    rightWall
    {
        type            zeroGradient;
    }

    axis
    {
        type            zeroGradient;
    }

    leftWall
    {
        type            zeroGradient;
    }

    farField
    {
        type            inletOutlet;
        inletValue      uniform 0;
        value           uniform 0;
    }

    back
    {
        type            empty;
    }

    front
    {
        type            empty;
    }
}


// ************************************************************************* //

// ************************************************************************* //
