/*--------------------------------*- C++ -*----------------------------------*\
  =========                 |
  \\      /  F ield         | OpenFOAM: The Open Source CFD Toolbox
   \\    /   O peration     | Website:  https://openfoam.org
    \\  /    A nd           | Version:  8
     \\/     M anipulation  |
\*---------------------------------------------------------------------------*/
FoamFile
{
    version     2.0;
    format      ascii;
    class       volScalarField;
    object      p_rgh;
}
// * * * * * * * * * * * * * * * * * * * * * * * * * * * * * * * * * * * * * //

dimensions      [1 -1 -2 0 0 0 0];

internalField   uniform 0;

boundaryField
{
    movingWall
    {
        type            fixedFluxPressure;
        value           uniform 0;
    }

    movingTopWall
    {
        type           fixedFluxPressure;
        value           uniform 0;
    }

    farFieldMoving
    {
        type            totalPressure;
        rho             rho;
        psi             none;
        gamma           1;
        p0              uniform 0;
        value           uniform 0;
    }

    rightWall
    {
        type            fixedFluxPressure;
        value           uniform 0;
    }

    axis
    {
        type            fixedFluxPressure;
        value           uniform 0;
    }

    leftWall
    {
        type            fixedFluxPressure;
        value           uniform 0;
    }


    back
    {
        type            empty;

    front
    {
        type            empty;
    }
}

// ************************************************************************* //
