/*--------------------------------*- C++ -*----------------------------------*\
  =========                 |
  \\      /  F ield         | OpenFOAM: The Open Source CFD Toolbox
   \\    /   O peration     | Website:  https://openfoam.org
    \\  /    A nd           | Version:  8
     \\/     M anipulation  |
\*---------------------------------------------------------------------------*/
FoamFile
{
    version     2.0;
    format      ascii;
    class       pointScalarField;
    object      pointMotionU;
}
// * * * * * * * * * * * * * * * * * * * * * * * * * * * * * * * * * * * * * //

dimensions      [0 1 -1 0 0 0 0];

internalField   uniform 0;

boundaryField
{
    movingWall
    {
        type            angularOscillatingDisplacement;
        axis            (1 0 0);
        origin          (0 0 0);
        angle0          0;
        amplitude       #calc"degToRad(15)";
        omega           6.28;
        value           uniform (0 0 0);
    }
    farFieldMoving
    {
        type            slip;
    }
    rightWall
    {
        type            uniformFixedValue;
        uniformValue    constant 0;
    }

    axis
    {
        type            slip;
        // uniformValue    constant 0;
    }

    leftWall
    {
        type            uniformFixedValue;
        uniformValue    constant 0;
    }
    farField
    {
        type            slip;
    }
    back
    {
        type            empty;
    }
    front
    {
        type            empty;
    }
}

// ************************************************************************* //
