/*--------------------------------*- C++ -*----------------------------------*\
| =========                 |                                                 |
| \\      /  F ield         | OpenFOAM Extend Project: Open Source CFD        |
|  \\    /   O peration     | Version:  1.6-ext                               |
|   \\  /    A nd           | Web:      www.extend-project.de                 |
|    \\/     M anipulation  |                                                 |
\*---------------------------------------------------------------------------*/
FoamFile
{
    version     2.0;
    format      ascii;
    class       pointVectorField;
    location    "0.01";
    object      pointDisplacement;
}
// * * * * * * * * * * * * * * * * * * * * * * * * * * * * * * * * * * * * * //

dimensions      [0 1 0 0 0 0 0];

internalField   uniform (0 0 0);

boundaryField
{
    movingWall
    {
        type            oscillatingDisplacement;
        axis            (1 0 0);
        amplitude       (-0.10 0 0);
        omega           8;
        value           uniform (0 0 0);
    }

    movingLowerWall
    {
        type            slip;
    }

    topField
    {
        type            slip;
    }

    bottomWallLeft
    {
        type            slip;
    }

    bottomWallRight
    {
        type            slip;
    }

    rightWall
    {
        type            uniformFixedValue;
        uniformValue    constant (0 0 0);
    }

    leftWall
    {
        type            uniformFixedValue;
        uniformValue    constant (0 0 0);
    }

    back
    {
        type            empty;
    }
    front
    {
        type            empty;
    }
}

// ************************************************************************* //
