/*--------------------------------*- C++ -*----------------------------------*\
  =========                 |
  \\      /  F ield         | OpenFOAM: The Open Source CFD Toolbox
   \\    /   O peration     | Website:  https://openfoam.org
    \\  /    A nd           | Version:  8
     \\/     M anipulation  |
\*---------------------------------------------------------------------------*/
FoamFile
{
    version     2.0;
    format      ascii;
    class       volVectorField;
    location    "0";
    object      U;
}
// * * * * * * * * * * * * * * * * * * * * * * * * * * * * * * * * * * * * * //

dimensions      [0 1 -1 0 0 0 0];

internalField   uniform (0 0 0);

boundaryField
{
    movingWall
    {
        type            movingWallVelocity;
        value           $internalField;
    }

    movingTopWall
    {
        type            noSlip;
    }

    farFieldMoving
    {
        type            noSlip;
    }

    rightWall
    {
        type            noSlip;
    }

    axis
    {
        type            noSlip;
    }

    leftWall
    {
        type            noSlip;
    }

    back
    {
        type            empty;
    }

    front
    {
        type            empty;
    }
}


// ************************************************************************* //
