/*--------------------------------*- C++ -*----------------------------------*\
  =========                 |
  \\      /  F ield         | OpenFOAM: The Open Source CFD Toolbox
   \\    /   O peration     | Website:  https://openfoam.org
    \\  /    A nd           | Version:  8
     \\/     M anipulation  |
\*---------------------------------------------------------------------------*/
FoamFile
{
    version     2.0;
    format      ascii;
    class       pointScalarField;
    object      pointMotionU;
}
// * * * * * * * * * * * * * * * * * * * * * * * * * * * * * * * * * * * * * //

dimensions      [0 1 -1 0 0 0 0];

internalField   uniform 0;

boundaryField
{
    movingWall
    {
        type            fixedValue;
        value    uniform 0.2;
    }

    movingTopWall
    {
        type            slip;
    }

    atmosphere
    {
        type            slip;
    }

    outlet
    {
        type            fixedValue;
        value    uniform 0;
    }

    axis
    {
        type            slip;
        // value    constant 0;
    }

    inlet
    {
        type            fixedValue;
        value    uniform 0;
    }

    back
    {
        type            empty;
    }
    front
    {
        type            empty;
    }
}

// ************************************************************************* //
